Circuit: * Z:\home\kai\EDA\Sharp-PC\Audio Interface\LTspice\cmt-out-4.asc

Direct Newton iteration for .op point succeeded.

Date: Tue Mar 15 00:04:51 2016
Total elapsed time: 0.150 seconds.

tnom = 27
temp = 27
method = modified trap
totiter = 9946
traniter = 9934
tranpoints = 4968
accept = 4206
rejected = 762
matrix size = 42
fillins = 40
solver = Normal
Matrix Compiler1: 3,84 KB object code size  2.2/1.1/[0.7]
Matrix Compiler2: off  [0.9]/1.1/0.9


