Circuit: * Z:\home\kai\EDA\Sharp-PC\Audio Interface\LTspice\cmt-out-2.asc

Direct Newton iteration for .op point succeeded.

Date: Sat Mar 12 16:10:47 2016
Total elapsed time: 0.094 seconds.

tnom = 27
temp = 27
method = modified trap
totiter = 13502
traniter = 13493
tranpoints = 5716
accept = 4656
rejected = 1060
matrix size = 18
fillins = 0
solver = Normal
Matrix Compiler1: 1,15 KB object code size  0.7/0.4/[0.4]
Matrix Compiler2: off  [0.3]/0.4/0.5


