Circuit: * Z:\home\kai\EDA\Sharp-PC\Audio Interface\LTspice\cmt-out-2.asc

WARNING: Less than two connections to node OUT.  This node is used by A1.
Direct Newton iteration for .op point succeeded.

Date: Tue Mar 22 23:28:37 2016
Total elapsed time: 0.263 seconds.

tnom = 27
temp = 27
method = modified trap
totiter = 13334
traniter = 13325
tranpoints = 5629
accept = 4566
rejected = 1063
matrix size = 19
fillins = 0
solver = Normal
Matrix Compiler1: 1.17 KB object code size  2.5/3.0/[1.7]
Matrix Compiler2: 1.50 KB object code size  1.7/2.2/[1.7]


