Circuit: * Z:\home\kai\EDA\Sharp-PC\Audio Interface\LTspice\cmt-out-3.asc

Direct Newton iteration failed to find .op point.  (Use ".option noopiter" to skip.)
Starting Gmin stepping
Gmin = 10
Gmin = 1.07374
Gmin = 0.115292
Gmin = 0.0123794
Gmin = 0.00132923
Gmin = 0.000142725
Gmin = 1.5325e-005
Gmin = 1.6455e-006
Gmin = 1.76685e-007
Gmin = 1.89714e-008
Gmin = 2.03704e-009
Gmin = 2.18725e-010
Gmin = 2.34854e-011
Gmin = 2.52173e-012
Gmin = 2.70769e-013
Gmin = 0
Gmin stepping succeeded in finding the operating point.


Date: Tue Mar 22 09:30:07 2016
Total elapsed time: 0.679 seconds.

tnom = 27
temp = 27
method = modified trap
totiter = 22087
traniter = 21649
tranpoints = 8342
accept = 6216
rejected = 2126
matrix size = 34
fillins = 12
solver = Normal
Matrix Compiler1: 3.12 KB object code size  3.4/2.9/[1.9]
Matrix Compiler2: 3.17 KB object code size  3.5/3.0/[2.5]


