Circuit: * Z:\home\kai\EDA\Sharp-PC\Audio Interface\LTspice\cmt-out-4.asc

Direct Newton iteration for .op point succeeded.

Date: Tue Mar 22 09:29:46 2016
Total elapsed time: 0.313 seconds.

tnom = 27
temp = 27
method = modified trap
totiter = 9946
traniter = 9934
tranpoints = 4968
accept = 4206
rejected = 762
matrix size = 42
fillins = 40
solver = Normal
Matrix Compiler1: 3.85 KB object code size  5.4/3.6/[2.3]
Matrix Compiler2: 4.00 KB object code size  2.6/3.5/[2.3]


