Circuit: * Z:\home\kai\EDA\Sharp-PC\Audio Interface\LTspice\interface-line-out.asc

Direct Newton iteration for .op point succeeded.

Date: Mon Mar 21 19:10:16 2016
Total elapsed time: 0.745 seconds.

tnom = 27
temp = 27
method = modified trap
totiter = 73935
traniter = 73932
tranpoints = 36967
accept = 30734
rejected = 6233
matrix size = 8
fillins = 0
solver = Normal
Matrix Compiler1: 210 bytes object code size  1.5/1.4/[1.3]
Matrix Compiler2: 506 bytes object code size  1.4/1.6/[1.3]


