Circuit: * Z:\home\kai\EDA\Sharp-PC\Audio Interface\LTspice\interface-line-out.asc

Direct Newton iteration for .op point succeeded.

Date: Fri Mar 18 23:30:52 2016
Total elapsed time: 0.493 seconds.

tnom = 27
temp = 27
method = modified trap
totiter = 73935
traniter = 73932
tranpoints = 36967
accept = 30734
rejected = 6233
matrix size = 8
fillins = 0
solver = Normal
Matrix Compiler1: 210 Bytes object code size  0.3/0.3/[0.3]
Matrix Compiler2: 506 Bytes object code size  0.3/0.3/[0.3]


