Circuit: * Z:\home\kai\EDA\Sharp-PC\Audio Interface\LTspice\mic-in.asc

.OP point found by inspection.

Date: Wed Mar 23 16:48:19 2016
Total elapsed time: 0.541 seconds.

tnom = 27
temp = 27
method = modified trap
totiter = 76230
traniter = 76230
tranpoints = 38116
accept = 31018
rejected = 7098
matrix size = 8
fillins = 0
solver = Normal
Matrix Compiler1: 246 bytes object code size  1.5/1.4/[1.3]
Matrix Compiler2: 526 bytes object code size  1.4/1.5/[1.3]


